/*--------------------------------*- C++ -*----------------------------------*\ 
| ========                 |                                                 | 
| \      /  F ield         | OpenFOAM: The Open Source CFD Toolbox           | 
|  \    /   O peration     | Version:  4.1                                   | 
|   \  /    A nd           | Web:      www.OpenFOAM.org                      | 
|    \/     M anipulation  |                                                 | 
\*---------------------------------------------------------------------------*/ 
FoamFile 
{ 
 	 version 	 2.0; 
 	 format 	 ascii; 
 	 class 		 dictionary; 
 	 object 	 topoSetDict; 
} 
// * * * * * * * * * * * * * * * * * * * * * * * * * * * * * * * * * * * * * // 

actions
(
	//use this to cut the coating in front of the channel
    {
        name    refBox;
        type    cellSet;
        action  clear;
    }
	{
		name	refBox;
		type	cellSet;
		action	new;
		source	boxToCell;
		sourceInfo
		{
			box (0.25 0.25 0.25) (0.75 0.75 0.75);
		}
	}	
	
);
// ************************************************************************* //

